<?xml version="1.0" encoding="UTF-8"?>

<!-- generated on 2022-05-08 13:34:50 by Eclipse SUMO netedit Version 1.10.0
<configuration xmlns:xsi="http://www.w3.org/2001/XMLSchema-instance" xsi:noNamespaceSchemaLocation="http://sumo.dlr.de/xsd/netconvertConfiguration.xsd">

    <output>
        <output-file value="/Users/work/Documents/GitHub/RL-dispatch/scene/SketchNet.net.xml"/>
    </output>

    <processing>
        <offset.disable-normalization value="true"/>
    </processing>

    <junctions>
        <no-turnarounds value="true"/>
    </junctions>

    <report>
        <aggregate-warnings value="5"/>
    </report>

</configuration>
-->

<net version="1.9" junctionCornerDetail="5" limitTurnSpeed="5.50" xmlns:xsi="http://www.w3.org/2001/XMLSchema-instance" xsi:noNamespaceSchemaLocation="http://sumo.dlr.de/xsd/net_file.xsd">

    <location netOffset="0.00,0.00" convBoundary="-17.96,46.54,113.58,48.40" origBoundary="10000000000.00,10000000000.00,-10000000000.00,-10000000000.00" projParameter="!"/>

    <edge id="gneE0" from="gneJ0" to="gneJ1" priority="-1" spreadType="center">
        <lane id="gneE0_0" index="0" allow="rail_urban rail rail_electric rail_fast" speed="13.89" length="131.55" shape="-17.96,46.54 113.58,48.40"/>
    </edge>

    <junction id="gneJ0" type="dead_end" x="-17.96" y="46.54" incLanes="" intLanes="" shape="-17.98,48.14 -17.94,44.94"/>
    <junction id="gneJ1" type="dead_end" x="113.58" y="48.40" incLanes="gneE0_0" intLanes="" shape="113.60,46.80 113.55,50.00"/>

</net>
