<?xml version="1.0" encoding="UTF-8"?>

<!-- generated on 2022-05-15 12:20:52 by Eclipse SUMO netedit Version 1.10.0
<configuration xmlns:xsi="http://www.w3.org/2001/XMLSchema-instance" xsi:noNamespaceSchemaLocation="http://sumo.dlr.de/xsd/netconvertConfiguration.xsd">

    <input>
        <sumo-net-file value="/Users/work/Documents/GitHub/RL-dispatch/scene/SouthStationEdit.net.xml"/>
    </input>

    <output>
        <output-file value="/Users/work/Documents/GitHub/RL-dispatch/scene/SouthStationEdit.net.xml"/>
        <output.street-names value="true"/>
    </output>

    <processing>
        <geometry.min-radius.fix.railways value="false"/>
        <geometry.max-grade.fix value="false"/>
        <offset.disable-normalization value="true"/>
        <lefthand value="false"/>
    </processing>

    <junctions>
        <no-turnarounds value="true"/>
        <junctions.corner-detail value="5"/>
        <junctions.limit-turn-speed value="268"/>
        <rectangular-lane-cut value="false"/>
    </junctions>

    <pedestrian>
        <walkingareas value="false"/>
    </pedestrian>

    <netedit>
        <additional-files value="/Users/work/Documents/GitHub/RL-dispatch/scene/SouthStationEdit.add.xml"/>
    </netedit>

    <report>
        <aggregate-warnings value="5"/>
    </report>

</configuration>
-->

<net version="1.9" junctionCornerDetail="5" limitTurnSpeed="268.00" xmlns:xsi="http://www.w3.org/2001/XMLSchema-instance" xsi:noNamespaceSchemaLocation="http://sumo.dlr.de/xsd/net_file.xsd">

    <location netOffset="-329026.22,-4688026.46" convBoundary="1103.17,2032.61,1749.21,2852.49" origBoundary="-71.075758,42.326050,-71.040663,42.359249" projParameter="+proj=utm +zone=19 +ellps=WGS84 +datum=WGS84 +units=m +no_defs"/>

    <type id="highway.bridleway" priority="1" numLanes="1" speed="2.78" allow="pedestrian" oneway="1" width="2.00"/>
    <type id="highway.bus_guideway" priority="1" numLanes="1" speed="27.78" allow="bus" oneway="1"/>
    <type id="highway.cycleway" priority="1" numLanes="1" speed="8.33" allow="bicycle" oneway="1" width="1.00"/>
    <type id="highway.footway" priority="1" numLanes="1" speed="2.78" allow="pedestrian" oneway="1" width="2.00"/>
    <type id="highway.ford" priority="1" numLanes="1" speed="2.78" allow="army" oneway="1"/>
    <type id="highway.living_street" priority="2" numLanes="1" speed="2.78" disallow="tram rail_urban rail rail_electric rail_fast ship" oneway="1"/>
    <type id="highway.motorway" priority="14" numLanes="2" speed="39.44" allow="private emergency authority army vip passenger hov taxi bus coach delivery truck trailer motorcycle evehicle custom1 custom2" oneway="1"/>
    <type id="highway.motorway_link" priority="9" numLanes="1" speed="22.22" allow="private emergency authority army vip passenger hov taxi bus coach delivery truck trailer motorcycle evehicle custom1 custom2" oneway="1"/>
    <type id="highway.path" priority="1" numLanes="1" speed="2.78" allow="pedestrian bicycle" oneway="1" width="2.00"/>
    <type id="highway.pedestrian" priority="1" numLanes="1" speed="2.78" allow="pedestrian" oneway="1" width="2.00"/>
    <type id="highway.primary" priority="12" numLanes="2" speed="27.78" disallow="tram rail_urban rail rail_electric rail_fast ship" oneway="1"/>
    <type id="highway.primary_link" priority="7" numLanes="1" speed="22.22" disallow="tram rail_urban rail rail_electric rail_fast ship" oneway="1"/>
    <type id="highway.raceway" priority="15" numLanes="2" speed="83.33" allow="vip" oneway="1"/>
    <type id="highway.residential" priority="3" numLanes="1" speed="30.00" disallow="tram rail_urban rail rail_electric rail_fast ship" oneway="1"/>
    <type id="highway.secondary" priority="11" numLanes="1" speed="27.78" disallow="tram rail_urban rail rail_electric rail_fast ship" oneway="1"/>
    <type id="highway.secondary_link" priority="6" numLanes="1" speed="22.22" disallow="tram rail_urban rail rail_electric rail_fast ship" oneway="1"/>
    <type id="highway.service" priority="1" numLanes="1" speed="5.56" allow="pedestrian delivery bicycle" oneway="1"/>
    <type id="highway.stairs" priority="1" numLanes="1" speed="1.39" allow="pedestrian" oneway="1" width="2.00"/>
    <type id="highway.step" priority="1" numLanes="1" speed="1.39" allow="pedestrian" oneway="1" width="2.00"/>
    <type id="highway.steps" priority="1" numLanes="1" speed="1.39" allow="pedestrian" oneway="1" width="2.00"/>
    <type id="highway.tertiary" priority="10" numLanes="1" speed="22.22" disallow="tram rail_urban rail rail_electric rail_fast ship" oneway="1"/>
    <type id="highway.tertiary_link" priority="5" numLanes="1" speed="22.22" disallow="tram rail_urban rail rail_electric rail_fast ship" oneway="1"/>
    <type id="highway.track" priority="1" numLanes="1" speed="5.56" allow="pedestrian motorcycle moped bicycle" oneway="1"/>
    <type id="highway.trunk" priority="13" numLanes="2" speed="27.78" disallow="pedestrian bicycle tram rail_urban rail rail_electric rail_fast ship" oneway="1"/>
    <type id="highway.trunk_link" priority="8" numLanes="1" speed="22.22" disallow="pedestrian bicycle tram rail_urban rail rail_electric rail_fast ship" oneway="1"/>
    <type id="highway.unclassified" priority="4" numLanes="1" speed="30.00" disallow="tram rail_urban rail rail_electric rail_fast ship" oneway="1"/>
    <type id="highway.unsurfaced" priority="1" numLanes="1" speed="8.33" disallow="tram rail_urban rail rail_electric rail_fast ship" oneway="1"/>
    <type id="railway.highspeed" priority="21" numLanes="1" speed="30.00" allow="rail_fast" oneway="1"/>
    <type id="railway.light_rail" priority="19" numLanes="1" speed="30.00" allow="rail_urban" oneway="1"/>
    <type id="railway.preserved" priority="16" numLanes="1" speed="30.00" allow="rail" oneway="1"/>
    <type id="railway.rail" priority="20" numLanes="1" speed="30.00" allow="rail" oneway="1"/>
    <type id="railway.subway" priority="18" numLanes="1" speed="30.00" allow="rail_urban" oneway="1"/>
    <type id="railway.tram" priority="17" numLanes="1" speed="30.00" allow="tram" oneway="1"/>

    <edge id=":A_0" function="internal" bidi=":A_3">
        <lane id=":A_0_0" index="0" allow="rail rail_electric rail_fast" speed="30.00" length="31.20" shape="1509.13,2315.18 1505.85,2309.83 1500.69,2302.08 1495.41,2294.39 1491.77,2289.27"/>
    </edge>
    <edge id=":A_1" function="internal" bidi=":A_2">
        <lane id=":A_1_0" index="0" allow="rail rail_electric rail_fast" speed="30.00" length="31.12" shape="1509.13,2315.18 1494.76,2287.58"/>
    </edge>
    <edge id=":A_2" function="internal" bidi=":A_1">
        <lane id=":A_2_0" index="0" allow="rail rail_electric rail_fast" speed="30.00" length="31.12" shape="1494.76,2287.58 1509.13,2315.18"/>
    </edge>
    <edge id=":A_3" function="internal" bidi=":A_0">
        <lane id=":A_3_0" index="0" allow="rail rail_electric rail_fast" speed="30.00" length="31.20" shape="1491.77,2289.27 1495.41,2294.39 1500.69,2302.08 1505.85,2309.83 1509.13,2315.18"/>
    </edge>
    <edge id=":AB_0" function="internal" bidi=":AB_3">
        <lane id=":AB_0_0" index="0" allow="rail rail_electric rail_fast" speed="30.00" length="23.62" shape="1476.05,2285.63 1472.39,2282.11 1467.28,2277.76 1462.07,2273.51 1458.11,2270.28"/>
    </edge>
    <edge id=":AB_1" function="internal" bidi=":AB_2">
        <lane id=":AB_1_0" index="0" allow="rail rail_electric rail_fast" speed="30.00" length="35.27" shape="1476.05,2285.63 1451.46,2260.35"/>
    </edge>
    <edge id=":AB_2" function="internal" bidi=":AB_1">
        <lane id=":AB_2_0" index="0" allow="rail rail_electric rail_fast" speed="30.00" length="35.27" shape="1451.46,2260.35 1476.05,2285.63"/>
    </edge>
    <edge id=":AB_3" function="internal" bidi=":AB_0">
        <lane id=":AB_3_0" index="0" allow="rail rail_electric rail_fast" speed="30.00" length="23.62" shape="1458.11,2270.28 1462.07,2273.51 1467.28,2277.76 1472.39,2282.11 1476.05,2285.63"/>
    </edge>
    <edge id=":AC_0" function="internal" bidi=":AC_3">
        <lane id=":AC_0_0" index="0" allow="rail rail_electric rail_fast" speed="30.00" length="21.69" shape="1472.63,2289.28 1469.18,2285.96 1464.58,2282.03 1459.90,2278.19 1456.18,2275.15"/>
    </edge>
    <edge id=":AC_1" function="internal" bidi=":AC_2">
        <lane id=":AC_1_0" index="0" allow="rail rail_electric rail_fast" speed="30.00" length="21.59" shape="1472.63,2289.28 1469.48,2285.68 1465.55,2281.12 1461.55,2276.62 1458.23,2273.20"/>
    </edge>
    <edge id=":AC_2" function="internal" bidi=":AC_1">
        <lane id=":AC_2_0" index="0" allow="rail rail_electric rail_fast" speed="30.00" length="21.56" shape="1458.36,2273.12 1472.63,2289.28"/>
    </edge>
    <edge id=":AC_3" function="internal" bidi=":AC_0">
        <lane id=":AC_3_0" index="0" allow="rail rail_electric rail_fast" speed="30.00" length="21.69" shape="1456.18,2275.15 1459.90,2278.19 1464.58,2282.03 1469.18,2285.96 1472.63,2289.28"/>
    </edge>
    <edge id=":AC2_0" function="internal" bidi=":AC2_4">
        <lane id=":AC2_0_0" index="0" allow="rail rail_electric rail_fast" speed="30.00" length="45.53" shape="1461.09,2283.68 1455.09,2277.63 1444.95,2267.61 1434.74,2257.68 1428.49,2251.89"/>
    </edge>
    <edge id=":AC2_1" function="internal">
        <lane id=":AC2_1_0" index="0" allow="rail rail_electric rail_fast" speed="30.00" length="25.78" shape="1456.03,2275.02 1450.42,2270.58 1449.39,2270.54 1452.95,2274.91 1461.09,2283.68"/>
    </edge>
    <edge id=":AC2_2" function="internal" bidi=":AC2_3">
        <lane id=":AC2_2_0" index="0" allow="rail rail_electric rail_fast" speed="30.00" length="35.96" shape="1456.03,2275.02 1428.49,2251.89"/>
    </edge>
    <edge id=":AC2_3" function="internal" bidi=":AC2_2">
        <lane id=":AC2_3_0" index="0" allow="rail rail_electric rail_fast" speed="30.00" length="35.96" shape="1428.49,2251.89 1456.03,2275.02"/>
    </edge>
    <edge id=":AC2_4" function="internal" bidi=":AC2_0">
        <lane id=":AC2_4_0" index="0" allow="rail rail_electric rail_fast" speed="30.00" length="45.53" shape="1428.49,2251.89 1434.74,2257.68 1444.95,2267.61 1455.09,2277.63 1461.09,2283.68"/>
    </edge>
    <edge id=":AD_0" function="internal" bidi=":AD_1">
        <lane id=":AD_0_0" index="0" allow="rail rail_electric rail_fast" speed="30.00" length="0.24" shape="1492.81,2306.32 1492.67,2306.12"/>
    </edge>
    <edge id=":AD_1" function="internal" bidi=":AD_0">
        <lane id=":AD_1_0" index="0" allow="rail rail_electric rail_fast" speed="30.00" length="0.24" shape="1492.67,2306.12 1492.81,2306.32"/>
    </edge>
    <edge id=":B_0" function="internal" bidi=":B_7">
        <lane id=":B_0_0" index="0" allow="rail rail_electric rail_fast" speed="30.00" length="3.00" shape="1518.43,2333.17 1518.11,2332.34 1517.88,2331.77 1517.61,2331.22 1517.20,2330.43"/>
    </edge>
    <edge id=":B_1" function="internal" bidi=":B_5">
        <lane id=":B_1_0" index="0" allow="rail rail_electric rail_fast" speed="30.00" length="3.01" shape="1518.43,2333.17 1517.34,2330.36"/>
    </edge>
    <edge id=":B_2" function="internal" bidi=":B_6">
        <lane id=":B_2_0" index="0" allow="rail rail_electric rail_fast" speed="30.00" length="2.99" shape="1518.61,2333.07 1517.20,2330.43"/>
    </edge>
    <edge id=":B_3" function="internal" bidi=":B_4">
        <lane id=":B_3_0" index="0" allow="rail rail_electric rail_fast" speed="30.00" length="3.00" shape="1518.61,2333.07 1518.19,2332.29 1517.92,2331.74 1517.67,2331.18 1517.34,2330.36"/>
    </edge>
    <edge id=":B_4" function="internal" bidi=":B_3">
        <lane id=":B_4_0" index="0" allow="rail rail_electric rail_fast" speed="30.00" length="3.00" shape="1517.34,2330.36 1517.67,2331.18 1517.92,2331.74 1518.19,2332.29 1518.61,2333.07"/>
    </edge>
    <edge id=":B_5" function="internal" bidi=":B_1">
        <lane id=":B_5_0" index="0" allow="rail rail_electric rail_fast" speed="30.00" length="3.01" shape="1517.34,2330.36 1518.43,2333.17"/>
    </edge>
    <edge id=":B_6" function="internal" bidi=":B_2">
        <lane id=":B_6_0" index="0" allow="rail rail_electric rail_fast" speed="30.00" length="2.99" shape="1517.20,2330.43 1518.61,2333.07"/>
    </edge>
    <edge id=":B_7" function="internal" bidi=":B_0">
        <lane id=":B_7_0" index="0" allow="rail rail_electric rail_fast" speed="30.00" length="3.00" shape="1517.20,2330.43 1517.61,2331.22 1517.88,2331.77 1518.11,2332.34 1518.43,2333.17"/>
    </edge>
    <edge id=":C_0" function="internal" bidi=":C_7">
        <lane id=":C_0_0" index="0" allow="rail rail_electric rail_fast" speed="30.00" length="52.66" shape="1515.17,2324.83 1511.34,2315.99 1504.54,2300.74 1497.65,2285.53 1493.56,2276.81"/>
    </edge>
    <edge id=":C_1" function="internal" bidi=":C_5">
        <lane id=":C_1_0" index="0" allow="rail" speed="30.00" length="47.17" shape="1515.17,2324.83 1498.61,2280.66"/>
    </edge>
    <edge id=":C_2" function="internal" bidi=":C_6">
        <lane id=":C_2_0" index="0" allow="rail" speed="30.00" length="52.74" shape="1518.22,2323.42 1493.56,2276.81"/>
    </edge>
    <edge id=":C_3" function="internal" bidi=":C_4">
        <lane id=":C_3_0" index="0" allow="rail" speed="30.00" length="47.04" shape="1518.22,2323.42 1514.41,2315.54 1508.19,2302.14 1502.08,2288.70 1498.61,2280.66"/>
    </edge>
    <edge id=":C_4" function="internal" bidi=":C_3">
        <lane id=":C_4_0" index="0" allow="rail" speed="30.00" length="47.05" shape="1498.54,2280.69 1501.98,2288.74 1508.12,2302.17 1514.39,2315.55 1518.22,2323.42"/>
    </edge>
    <edge id=":C_5" function="internal" bidi=":C_1">
        <lane id=":C_5_0" index="0" allow="rail" speed="30.00" length="47.17" shape="1498.54,2280.69 1515.17,2324.83"/>
    </edge>
    <edge id=":C_6" function="internal" bidi=":C_2">
        <lane id=":C_6_0" index="0" allow="rail" speed="30.00" length="52.74" shape="1493.56,2276.81 1518.22,2323.42"/>
    </edge>
    <edge id=":C_7" function="internal" bidi=":C_0">
        <lane id=":C_7_0" index="0" allow="rail" speed="30.00" length="52.66" shape="1493.56,2276.81 1497.65,2285.53 1504.54,2300.74 1511.34,2315.99 1515.17,2324.83"/>
    </edge>
    <edge id=":D_0" function="internal" bidi=":D_7">
        <lane id=":D_0_0" index="0" allow="rail" speed="30.00" length="52.17" shape="1498.54,2280.48 1494.65,2271.75 1487.65,2256.78 1480.54,2241.86 1476.32,2233.28"/>
    </edge>
    <edge id=":D_1" function="internal" bidi=":D_5">
        <lane id=":D_1_0" index="0" allow="rail" speed="30.00" length="41.49" shape="1498.54,2280.48 1483.41,2241.84"/>
    </edge>
    <edge id=":D_2" function="internal" bidi=":D_6">
        <lane id=":D_2_0" index="0" allow="rail" speed="30.00" length="57.82" shape="1503.43,2284.35 1476.32,2233.28"/>
    </edge>
    <edge id=":D_3" function="internal" bidi=":D_4">
        <lane id=":D_3_0" index="0" allow="rail" speed="30.00" length="46.99" shape="1503.43,2284.35 1499.58,2276.49 1493.25,2263.17 1487.00,2249.81 1483.41,2241.84"/>
    </edge>
    <edge id=":D_4" function="internal" bidi=":D_3">
        <lane id=":D_4_0" index="0" allow="rail" speed="30.00" length="46.99" shape="1483.41,2241.84 1487.00,2249.81 1493.25,2263.17 1499.58,2276.49 1503.43,2284.35"/>
    </edge>
    <edge id=":D_5" function="internal" bidi=":D_1">
        <lane id=":D_5_0" index="0" allow="rail" speed="30.00" length="41.49" shape="1483.41,2241.84 1498.48,2280.50"/>
    </edge>
    <edge id=":D_6" function="internal" bidi=":D_2">
        <lane id=":D_6_0" index="0" allow="rail" speed="30.00" length="57.82" shape="1476.32,2233.28 1503.43,2284.35"/>
    </edge>
    <edge id=":D_7" function="internal" bidi=":D_0">
        <lane id=":D_7_0" index="0" allow="rail" speed="30.00" length="52.17" shape="1476.32,2233.28 1480.54,2241.85 1487.66,2256.77 1494.65,2271.75 1498.48,2280.50"/>
    </edge>
    <edge id=":E_0" function="internal" bidi=":E_3">
        <lane id=":E_0_0" index="0" allow="rail" speed="30.00" length="24.59" shape="1483.34,2241.65 1481.40,2236.77 1478.80,2230.22 1476.13,2223.70 1473.96,2218.93"/>
    </edge>
    <edge id=":E_1" function="internal" bidi=":E_2">
        <lane id=":E_1_0" index="0" allow="rail" speed="30.00" length="35.36" shape="1490.42,2250.23 1473.96,2218.93"/>
    </edge>
    <edge id=":E_2" function="internal" bidi=":E_1">
        <lane id=":E_2_0" index="0" allow="rail" speed="30.00" length="35.36" shape="1473.96,2218.93 1490.42,2250.23"/>
    </edge>
    <edge id=":E_3" function="internal" bidi=":E_0">
        <lane id=":E_3_0" index="0" allow="rail" speed="30.00" length="24.59" shape="1473.96,2218.93 1476.13,2223.70 1478.80,2230.22 1481.40,2236.77 1483.34,2241.65"/>
    </edge>
    <edge id=":End1_0" function="internal" bidi=":End1_1">
        <lane id=":End1_0_0" index="0" allow="rail" speed="30.00" length="0.27" shape="1670.75,2814.37 1670.65,2814.12"/>
    </edge>
    <edge id=":End1_1" function="internal" bidi=":End1_0">
        <lane id=":End1_1_0" index="0" allow="rail" speed="30.00" length="0.27" shape="1670.65,2814.12 1670.75,2814.37"/>
    </edge>
    <edge id=":End1_2" function="internal">
        <lane id=":End1_2_0" index="0" allow="rail" speed="30.00" length="0.10" shape="1670.65,2814.12 1670.65,2814.12"/>
    </edge>
    <edge id=":End10_0" function="internal" bidi=":End10_1">
        <lane id=":End10_0_0" index="0" allow="rail" speed="30.00" length="0.23" shape="1743.36,2834.31 1743.28,2834.09"/>
    </edge>
    <edge id=":End10_1" function="internal" bidi=":End10_0">
        <lane id=":End10_1_0" index="0" allow="rail" speed="30.00" length="0.23" shape="1743.28,2834.09 1743.36,2834.31"/>
    </edge>
    <edge id=":End10_2" function="internal">
        <lane id=":End10_2_0" index="0" allow="rail" speed="30.00" length="0.10" shape="1743.28,2834.09 1743.28,2834.09"/>
    </edge>
    <edge id=":End11_0" function="internal" bidi=":End11_1">
        <lane id=":End11_0_0" index="0" allow="rail rail_electric rail_fast" speed="30.00" length="0.29" shape="1728.42,2773.85 1728.32,2773.57"/>
    </edge>
    <edge id=":End11_1" function="internal" bidi=":End11_0">
        <lane id=":End11_1_0" index="0" allow="rail rail_electric rail_fast" speed="30.00" length="0.29" shape="1728.32,2773.57 1728.42,2773.85"/>
    </edge>
    <edge id=":End11_2" function="internal">
        <lane id=":End11_2_0" index="0" allow="rail rail_electric rail_fast" speed="30.00" length="0.10" shape="1728.32,2773.57 1728.32,2773.57"/>
    </edge>
    <edge id=":End12_0" function="internal" bidi=":End12_1">
        <lane id=":End12_0_0" index="0" allow="rail" speed="30.00" length="0.10" shape="1736.71,2780.17 1736.71,2780.17"/>
    </edge>
    <edge id=":End12_1" function="internal" bidi=":End12_0">
        <lane id=":End12_1_0" index="0" allow="rail" speed="30.00" length="0.10" shape="1736.71,2780.17 1736.71,2780.17"/>
    </edge>
    <edge id=":End12_2" function="internal">
        <lane id=":End12_2_0" index="0" allow="rail" speed="30.00" length="0.10" shape="1736.71,2780.17 1736.71,2780.17"/>
    </edge>
    <edge id=":End13_0" function="internal" bidi=":End13_1">
        <lane id=":End13_0_0" index="0" allow="rail" speed="30.00" length="0.29" shape="1730.86,2742.86 1730.76,2742.60"/>
    </edge>
    <edge id=":End13_1" function="internal" bidi=":End13_0">
        <lane id=":End13_1_0" index="0" allow="rail" speed="30.00" length="0.29" shape="1730.76,2742.60 1730.86,2742.86"/>
    </edge>
    <edge id=":End13_2" function="internal">
        <lane id=":End13_2_0" index="0" allow="rail" speed="30.00" length="0.10" shape="1730.76,2742.60 1730.76,2742.60"/>
    </edge>
    <edge id=":End2_0" function="internal" bidi=":End2_1">
        <lane id=":End2_0_0" index="0" allow="rail" speed="30.00" length="0.29" shape="1675.58,2812.21 1675.47,2811.95"/>
    </edge>
    <edge id=":End2_1" function="internal" bidi=":End2_0">
        <lane id=":End2_1_0" index="0" allow="rail" speed="30.00" length="0.29" shape="1675.47,2811.95 1675.58,2812.21"/>
    </edge>
    <edge id=":End2_2" function="internal">
        <lane id=":End2_2_0" index="0" allow="rail" speed="30.00" length="0.10" shape="1675.47,2811.95 1675.47,2811.95"/>
    </edge>
    <edge id=":End3_0" function="internal" bidi=":End3_1">
        <lane id=":End3_0_0" index="0" allow="rail rail_electric rail_fast" speed="30.00" length="0.20" shape="1687.50,2818.78 1687.43,2818.60"/>
    </edge>
    <edge id=":End3_1" function="internal" bidi=":End3_0">
        <lane id=":End3_1_0" index="0" allow="rail rail_electric rail_fast" speed="30.00" length="0.20" shape="1687.43,2818.60 1687.50,2818.78"/>
    </edge>
    <edge id=":End3_2" function="internal">
        <lane id=":End3_2_0" index="0" allow="rail rail_electric rail_fast" speed="30.00" length="0.10" shape="1687.43,2818.60 1687.43,2818.60"/>
    </edge>
    <edge id=":End4_0" function="internal" bidi=":End4_1">
        <lane id=":End4_0_0" index="0" allow="rail rail_electric rail_fast" speed="30.00" length="0.29" shape="1692.21,2817.08 1692.11,2816.80"/>
    </edge>
    <edge id=":End4_1" function="internal" bidi=":End4_0">
        <lane id=":End4_1_0" index="0" allow="rail rail_electric rail_fast" speed="30.00" length="0.29" shape="1692.11,2816.80 1692.21,2817.08"/>
    </edge>
    <edge id=":End4_2" function="internal">
        <lane id=":End4_2_0" index="0" allow="rail rail_electric rail_fast" speed="30.00" length="0.10" shape="1692.11,2816.80 1692.11,2816.80"/>
    </edge>
    <edge id=":End5_0" function="internal" bidi=":End5_1">
        <lane id=":End5_0_0" index="0" allow="rail rail_electric rail_fast" speed="30.00" length="0.22" shape="1703.90,2822.66 1703.82,2822.45"/>
    </edge>
    <edge id=":End5_1" function="internal" bidi=":End5_0">
        <lane id=":End5_1_0" index="0" allow="rail rail_electric rail_fast" speed="30.00" length="0.22" shape="1703.82,2822.45 1703.90,2822.66"/>
    </edge>
    <edge id=":End5_2" function="internal">
        <lane id=":End5_2_0" index="0" allow="rail rail_electric rail_fast" speed="30.00" length="0.10" shape="1703.82,2822.45 1703.82,2822.45"/>
    </edge>
    <edge id=":End6_0" function="internal" bidi=":End6_1">
        <lane id=":End6_0_0" index="0" allow="rail rail_electric rail_fast" speed="30.00" length="0.30" shape="1708.65,2820.85 1708.53,2820.57"/>
    </edge>
    <edge id=":End6_1" function="internal" bidi=":End6_0">
        <lane id=":End6_1_0" index="0" allow="rail rail_electric rail_fast" speed="30.00" length="0.30" shape="1708.53,2820.57 1708.65,2820.85"/>
    </edge>
    <edge id=":End6_2" function="internal">
        <lane id=":End6_2_0" index="0" allow="rail rail_electric rail_fast" speed="30.00" length="0.10" shape="1708.53,2820.57 1708.53,2820.57"/>
    </edge>
    <edge id=":End7_0" function="internal" bidi=":End7_1">
        <lane id=":End7_0_0" index="0" allow="rail rail_electric rail_fast" speed="30.00" length="0.10" shape="1720.83,2828.35 1720.83,2828.35"/>
    </edge>
    <edge id=":End7_1" function="internal" bidi=":End7_0">
        <lane id=":End7_1_0" index="0" allow="rail rail_electric rail_fast" speed="30.00" length="0.10" shape="1720.83,2828.35 1720.83,2828.35"/>
    </edge>
    <edge id=":End7_2" function="internal">
        <lane id=":End7_2_0" index="0" allow="rail rail_electric rail_fast" speed="30.00" length="0.10" shape="1720.83,2828.35 1720.83,2828.35"/>
    </edge>
    <edge id=":End8_0" function="internal" bidi=":End8_1">
        <lane id=":End8_0_0" index="0" allow="rail" speed="30.00" length="0.22" shape="1725.52,2826.63 1725.44,2826.42"/>
    </edge>
    <edge id=":End8_1" function="internal" bidi=":End8_0">
        <lane id=":End8_1_0" index="0" allow="rail" speed="30.00" length="0.22" shape="1725.44,2826.42 1725.52,2826.63"/>
    </edge>
    <edge id=":End8_2" function="internal">
        <lane id=":End8_2_0" index="0" allow="rail" speed="30.00" length="0.10" shape="1725.44,2826.42 1725.44,2826.42"/>
    </edge>
    <edge id=":End9_0" function="internal" bidi=":End9_1">
        <lane id=":End9_0_0" index="0" allow="rail rail_electric rail_fast" speed="30.00" length="0.10" shape="1738.67,2835.77 1738.67,2835.77"/>
    </edge>
    <edge id=":End9_1" function="internal" bidi=":End9_0">
        <lane id=":End9_1_0" index="0" allow="rail rail_electric rail_fast" speed="30.00" length="0.10" shape="1738.67,2835.77 1738.67,2835.77"/>
    </edge>
    <edge id=":End9_2" function="internal">
        <lane id=":End9_2_0" index="0" allow="rail rail_electric rail_fast" speed="30.00" length="0.10" shape="1738.67,2835.77 1738.67,2835.77"/>
    </edge>
    <edge id=":Ent1_0" function="internal" bidi=":Ent1_3">
        <lane id=":Ent1_0_0" index="0" allow="rail rail_electric rail_fast" speed="30.00" length="30.55" shape="1458.08,2273.06 1436.11,2251.84"/>
    </edge>
    <edge id=":Ent1_1" function="internal" bidi=":Ent1_2">
        <lane id=":Ent1_1_0" index="0" allow="rail rail_electric rail_fast" speed="30.00" length="28.51" shape="1457.96,2270.15 1436.11,2251.84"/>
    </edge>
    <edge id=":Ent1_2" function="internal" bidi=":Ent1_1">
        <lane id=":Ent1_2_0" index="0" allow="rail rail_electric rail_fast" speed="30.00" length="28.51" shape="1436.11,2251.84 1457.96,2270.15"/>
    </edge>
    <edge id=":Ent1_3" function="internal" bidi=":Ent1_0">
        <lane id=":Ent1_3_0" index="0" allow="rail rail_electric rail_fast" speed="30.00" length="30.59" shape="1436.11,2251.84 1440.71,2255.97 1447.36,2262.20 1453.91,2268.54 1458.23,2272.97"/>
    </edge>
    <edge id=":Ent2_0" function="internal" bidi=":Ent2_3">
        <lane id=":Ent2_0_0" index="0" allow="rail rail_electric rail_fast" speed="30.00" length="40.19" shape="1464.82,2267.33 1459.43,2261.84 1450.67,2253.03 1441.81,2244.35 1436.10,2239.24"/>
    </edge>
    <edge id=":Ent2_1" function="internal" bidi=":Ent2_2">
        <lane id=":Ent2_1_0" index="0" allow="rail rail_electric rail_fast" speed="30.00" length="32.65" shape="1461.28,2260.03 1436.10,2239.24"/>
    </edge>
    <edge id=":Ent2_2" function="internal" bidi=":Ent2_1">
        <lane id=":Ent2_2_0" index="0" allow="rail rail_electric rail_fast" speed="30.00" length="32.65" shape="1436.10,2239.24 1461.28,2260.03"/>
    </edge>
    <edge id=":Ent2_3" function="internal" bidi=":Ent2_0">
        <lane id=":Ent2_3_0" index="0" allow="rail rail_electric rail_fast" speed="30.00" length="40.19" shape="1436.10,2239.24 1441.81,2244.35 1450.67,2253.03 1459.43,2261.84 1464.82,2267.33"/>
    </edge>
    <edge id=":Ent4_0" function="internal" bidi=":Ent4_1">
        <lane id=":Ent4_0_0" index="0" allow="rail rail_electric rail_fast" speed="30.00" length="0.29" shape="1445.08,2184.42 1444.94,2184.16"/>
    </edge>
    <edge id=":Ent4_1" function="internal" bidi=":Ent4_0">
        <lane id=":Ent4_1_0" index="0" allow="rail" speed="30.00" length="0.29" shape="1444.94,2184.16 1445.08,2184.42"/>
    </edge>
    <edge id=":Ent5_0" function="internal" bidi=":Ent5_1">
        <lane id=":Ent5_0_0" index="0" allow="rail" speed="30.00" length="0.30" shape="1457.54,2187.27 1457.40,2187.01"/>
    </edge>
    <edge id=":Ent5_1" function="internal" bidi=":Ent5_0">
        <lane id=":Ent5_1_0" index="0" allow="rail" speed="30.00" length="0.30" shape="1457.40,2187.01 1457.54,2187.27"/>
    </edge>
    <edge id=":Ext3_0" function="internal" bidi=":Ext3_1">
        <lane id=":Ext3_0_0" index="0" allow="rail rail_electric rail_fast" speed="30.00" length="0.10" shape="1448.04,2243.09 1448.04,2243.09"/>
    </edge>
    <edge id=":Ext3_1" function="internal" bidi=":Ext3_0">
        <lane id=":Ext3_1_0" index="0" allow="rail rail_electric rail_fast" speed="30.00" length="0.10" shape="1448.04,2243.09 1448.04,2243.09"/>
    </edge>
    <edge id=":F_0" function="internal" bidi=":F_7">
        <lane id=":F_0_0" index="0" allow="rail" speed="30.00" length="46.76" shape="1528.71,2337.72 1525.26,2329.73 1519.17,2316.38 1512.97,2303.08 1509.18,2295.24"/>
    </edge>
    <edge id=":F_1" function="internal" bidi=":F_5">
        <lane id=":F_1_0" index="0" allow="rail" speed="30.00" length="46.85" shape="1528.71,2337.72 1512.26,2293.85"/>
    </edge>
    <edge id=":F_2" function="internal" bidi=":F_6">
        <lane id=":F_2_0" index="0" allow="rail" speed="30.00" length="53.66" shape="1534.19,2342.71 1509.18,2295.24"/>
    </edge>
    <edge id=":F_3" function="internal" bidi=":F_4">
        <lane id=":F_3_0" index="0" allow="rail" speed="30.00" length="53.56" shape="1534.19,2342.71 1530.01,2333.88 1523.00,2318.38 1516.10,2302.84 1512.26,2293.85"/>
    </edge>
    <edge id=":F_4" function="internal" bidi=":F_3">
        <lane id=":F_4_0" index="0" allow="rail" speed="30.00" length="53.56" shape="1512.26,2293.85 1516.10,2302.84 1523.00,2318.38 1530.01,2333.88 1534.19,2342.71"/>
    </edge>
    <edge id=":F_5" function="internal" bidi=":F_1">
        <lane id=":F_5_0" index="0" allow="rail" speed="30.00" length="46.85" shape="1512.26,2293.85 1528.71,2337.72"/>
    </edge>
    <edge id=":F_6" function="internal" bidi=":F_2">
        <lane id=":F_6_0" index="0" allow="rail" speed="30.00" length="53.66" shape="1509.18,2295.24 1534.19,2342.71"/>
    </edge>
    <edge id=":F_7" function="internal" bidi=":F_0">
        <lane id=":F_7_0" index="0" allow="rail" speed="30.00" length="46.76" shape="1509.18,2295.24 1512.97,2303.08 1519.17,2316.38 1525.26,2329.73 1528.71,2337.72"/>
    </edge>
    <edge id=":G_0" function="internal" bidi=":G_3">
        <lane id=":G_0_0" index="0" allow="rail" speed="30.00" length="30.62" shape="1579.47,2425.26 1576.15,2420.05 1571.01,2412.52 1565.77,2405.05 1562.16,2400.02"/>
    </edge>
    <edge id=":G_1" function="internal" bidi=":G_2">
        <lane id=":G_1_0" index="0" allow="rail" speed="30.00" length="37.49" shape="1579.47,2425.26 1560.93,2392.68"/>
    </edge>
    <edge id=":G_2" function="internal" bidi=":G_1">
        <lane id=":G_2_0" index="0" allow="rail" speed="30.00" length="37.49" shape="1560.93,2392.68 1579.47,2425.26"/>
    </edge>
    <edge id=":G_3" function="internal" bidi=":G_0">