<?xml version="1.0" encoding="UTF-8"?>

<!-- generated on 2021-12-21 14:55:21 by Eclipse SUMO netedit Version 1.10.0
<configuration xmlns:xsi="http://www.w3.org/2001/XMLSchema-instance" xsi:noNamespaceSchemaLocation="http://sumo.dlr.de/xsd/netconvertConfiguration.xsd">

    <input>
        <sumo-net-file value="/Users/work/Documents/1200/Final/SUMO/SouthStationOSM/SouthStationOSM.net.xml"/>
    </input>

    <output>
        <output-file value="/Users/work/Documents/1200/Final/SUMO/SouthStationOSM/SouthStationOSM.net.xml"/>
        <output.street-names value="true"/>
    </output>

    <processing>
        <geometry.min-radius.fix.railways value="false"/>
        <geometry.max-grade.fix value="false"/>
        <offset.disable-normalization value="true"/>
        <lefthand value="false"/>
    </processing>

    <junctions>
        <no-turnarounds value="true"/>
        <junctions.corner-detail value="5"/>
        <junctions.limit-turn-speed value="5.5"/>
        <rectangular-lane-cut value="false"/>
    </junctions>

    <pedestrian>
        <walkingareas value="false"/>
    </pedestrian>

    <report>
        <aggregate-warnings value="5"/>
    </report>

</configuration>
-->

<net version="1.9" junctionCornerDetail="5" limitTurnSpeed="5.50" xmlns:xsi="http://www.w3.org/2001/XMLSchema-instance" xsi:noNamespaceSchemaLocation="http://sumo.dlr.de/xsd/net_file.xsd">

    <location netOffset="-329026.22,-4688026.46" convBoundary="0.00,0.00,2889.13,3569.45" origBoundary="-71.075758,42.326050,-71.040663,42.359249" projParameter="+proj=utm +zone=19 +ellps=WGS84 +datum=WGS84 +units=m +no_defs"/>

    <type id="highway.bridleway" priority="1" numLanes="1" speed="2.78" allow="pedestrian" oneway="1" width="2.00"/>
    <type id="highway.bus_guideway" priority="1" numLanes="1" speed="27.78" allow="bus" oneway="1"/>
    <type id="highway.cycleway" priority="1" numLanes="1" speed="8.33" allow="bicycle" oneway="1" width="1.00"/>
    <type id="highway.footway" priority="1" numLanes="1" speed="2.78" allow="pedestrian" oneway="1" width="2.00"/>
    <type id="highway.ford" priority="1" numLanes="1" speed="2.78" allow="army" oneway="1"/>
    <type id="highway.living_street" priority="2" numLanes="1" speed="2.78" disallow="tram rail_urban rail rail_electric rail_fast ship" oneway="1"/>
    <type id="highway.motorway" priority="14" numLanes="2" speed="39.44" allow="private emergency authority army vip passenger hov taxi bus coach delivery truck trailer motorcycle evehicle custom1 custom2" oneway="1"/>
    <type id="highway.motorway_link" priority="9" numLanes="1" speed="22.22" allow="private emergency authority army vip passenger hov taxi bus coach delivery truck trailer motorcycle evehicle custom1 custom2" oneway="1"/>
    <type id="highway.path" priority="1" numLanes="1" speed="2.78" allow="pedestrian bicycle" oneway="1" width="2.00"/>
    <type id="highway.pedestrian" priority="1" numLanes="1" speed="2.78" allow="pedestrian" oneway="1" width="2.00"/>
    <type id="highway.primary" priority="12" numLanes="2" speed="27.78" disallow="tram rail_urban rail rail_electric rail_fast ship" oneway="1"/>
    <type id="highway.primary_link" priority="7" numLanes="1" speed="22.22" disallow="tram rail_urban rail rail_electric rail_fast ship" oneway="1"/>
    <type id="highway.raceway" priority="15" numLanes="2" speed="83.33" allow="vip" oneway="1"/>
    <type id="highway.residential" priority="3" numLanes="1" speed="13.89" disallow="tram rail_urban rail rail_electric rail_fast ship" oneway="1"/>
    <type id="highway.secondary" priority="11" numLanes="1" speed="27.78" disallow="tram rail_urban rail rail_electric rail_fast ship" oneway="1"/>
    <type id="highway.secondary_link" priority="6" numLanes="1" speed="22.22" disallow="tram rail_urban rail rail_electric rail_fast ship" oneway="1"/>
    <type id="highway.service" priority="1" numLanes="1" speed="5.56" allow="pedestrian delivery bicycle" oneway="1"/>
    <type id="highway.stairs" priority="1" numLanes="1" speed="1.39" allow="pedestrian" oneway="1" width="2.00"/>
    <type id="highway.step" priority="1" numLanes="1" speed="1.39" allow="pedestrian" oneway="1" width="2.00"/>
    <type id="highway.steps" priority="1" numLanes="1" speed="1.39" allow="pedestrian" oneway="1" width="2.00"/>
    <type id="highway.tertiary" priority="10" numLanes="1" speed="22.22" disallow="tram rail_urban rail rail_electric rail_fast ship" oneway="1"/>
    <type id="highway.tertiary_link" priority="5" numLanes="1" speed="22.22" disallow="tram rail_urban rail rail_electric rail_fast ship" oneway="1"/>
    <type id="highway.track" priority="1" numLanes="1" speed="5.56" allow="pedestrian motorcycle moped bicycle" oneway="1"/>
    <type id="highway.trunk" priority="13" numLanes="2" speed="27.78" disallow="pedestrian bicycle tram rail_urban rail rail_electric rail_fast ship" oneway="1"/>
    <type id="highway.trunk_link" priority="8" numLanes="1" speed="22.22" disallow="pedestrian bicycle tram rail_urban rail rail_electric rail_fast ship" oneway="1"/>
    <type id="highway.unclassified" priority="4" numLanes="1" speed="13.89" disallow="tram rail_urban rail rail_electric rail_fast ship" oneway="1"/>
    <type id="highway.unsurfaced" priority="1" numLanes="1" speed="8.33" disallow="tram rail_urban rail rail_electric rail_fast ship" oneway="1"/>
    <type id="railway.highspeed" priority="21" numLanes="1" speed="69.44" allow="rail_fast" oneway="1"/>
    <type id="railway.light_rail" priority="19" numLanes="1" speed="27.78" allow="rail_urban" oneway="1"/>
    <type id="railway.preserved" priority="16" numLanes="1" speed="27.78" allow="rail" oneway="1"/>
    <type id="railway.rail" priority="20" numLanes="1" speed="44.44" allow="rail" oneway="1"/>
    <type id="railway.subway" priority="18" numLanes="1" speed="27.78" allow="rail_urban" oneway="1"/>
    <type id="railway.tram" priority="17" numLanes="1" speed="13.89" allow="tram" oneway="1"/>

    <edge id=":297475267_0" function="internal">
        <lane id=":297475267_0_0" index="0" allow="rail rail_electric rail_fast" speed="44.44" length="33.59" shape="1523.84,2352.50 1520.37,2346.84 1514.72,2338.42 1508.96,2330.06 1505.18,2324.58"/>
    </edge>
    <edge id=":297475267_1" function="internal">
        <lane id=":297475267_1_0" index="0" allow="rail rail_electric rail_fast" speed="24.45" length="33.60" shape="1523.84,2352.50 1508.05,2322.85"/>
    </edge>
    <edge id=":3285237887_0" function="internal">
        <lane id=":3285237887_0_0" index="0" allow="rail rail_electric rail_fast" speed="44.44" length="2.84" shape="1559.73,2467.48 1559.02,2464.73"/>
    </edge>
    <edge id=":3285237887_1" function="internal">
        <lane id=":3285237887_1_0" index="0" allow="rail rail_electric rail_fast" speed="2.79" length="1.48" shape="1558.87,2464.79 1559.07,2465.30 1559.17,2465.46 1559.15,2465.27 1559.02,2464.73"/>
    </edge>
    <edge id=":3285381451_0" function="internal" bidi=":3285381451_1">
        <lane id=":3285381451_0_0" index="0" allow="rail rail_electric rail_fast" speed="24.45" length="0.30" shape="1596.00,2481.69 1595.88,2481.41"/>
    </edge>
    <edge id=":3285381451_1" function="internal" bidi=":3285381451_0">
        <lane id=":3285381451_1_0" index="0" allow="rail rail_electric rail_fast" speed="24.45" length="0.30" shape="1595.88,2481.41 1596.00,2481.69"/>
    </edge>
    <edge id=":3285769626_0" function="internal">
        <lane id=":3285769626_0_0" index="0" allow="rail rail_electric rail_fast" speed="44.44" length="31.96" shape="1547.19,2385.72 1544.46,2379.94 1540.08,2371.42 1535.54,2362.97 1532.36,2357.42"/>
    </edge>
    <edge id=":3285769626_1" function="internal">
        <lane id=":3285769626_1_0" index="0" allow="rail rail_electric rail_fast" speed="44.44" length="32.08" shape="1547.19,2385.72 1535.48,2355.86"/>
    </edge>
    <edge id=":3285769626_2" function="internal">
        <lane id=":3285769626_2_0" index="0" allow="rail rail_electric rail_fast" speed="44.44" length="32.06" shape="1550.29,2384.00 1532.36,2357.42"/>
    </edge>
    <edge id=":3285769626_3" function="internal">
        <lane id=":3285769626_3_0" index="0" allow="rail rail_electric rail_fast" speed="44.44" length="31.82" shape="1550.29,2384.00 1546.98,2378.56 1542.45,2370.17 1538.13,2361.66 1535.48,2355.86"/>
    </edge>
    <edge id=":408467482_0" function="internal">
        <lane id=":408467482_0_0" index="0" allow="rail rail_electric rail_fast" speed="44.44" length="49.88" shape="1554.44,2446.91 1551.75,2438.12 1546.90,2423.14 1541.95,2408.20 1538.92,2399.51"/>
    </edge>
    <edge id=":408467482_1" function="internal">
        <lane id=":408467482_1_0" index="0" allow="rail rail_electric rail_fast" speed="44.44" length="49.97" shape="1554.44,2446.91 1542.15,2398.47"/>
    </edge>
    <edge id=":408467482_2" function="internal">
        <lane id=":408467482_2_0" index="0" allow="rail rail_electric rail_fast" speed="44.44" length="50.01" shape="1557.74,2445.84 1538.92,2399.51"/>
    </edge>
    <edge id=":408467482_3" function="internal">
        <lane id=":408467482_3_0" index="0" allow="rail rail_electric rail_fast" speed="44.44" length="49.88" shape="1557.74,2445.84 1554.59,2437.21 1549.61,2422.27 1544.80,2407.28 1542.15,2398.47"/>
    </edge>
    <edge id=":408467484_0" function="internal">
        <lane id=":408467484_0_0" index="0" allow="rail rail_electric rail_fast" speed="44.44" length="2.98" shape="1531.93,2368.86 1531.61,2368.04 1531.38,2367.48 1531.12,2366.93 1530.72,2366.14"/>
    </edge>
    <edge id=":408467484_1" function="internal">
        <lane id=":408467484_1_0" index="0" allow="rail rail_electric rail_fast" speed="44.44" length="2.97" shape="1532.09,2368.78 1530.72,2366.14"/>
    </edge>
    <edge id=":408467492_0" function="internal">
        <lane id=":408467492_0_0" index="0" allow="rail rail_electric rail_fast" speed="44.44" length="2.81" shape="1543.48,2390.13 1542.16,2387.65"/>
    </edge>
    <edge id=":408467492_1" function="internal">
        <lane id=":408467492_1_0" index="0" allow="rail rail_electric rail_fast" speed="44.44" length="2.80" shape="1543.63,2390.03 1543.16,2389.35 1542.84,2388.87 1542.56,2388.38 1542.16,2387.65"/>
    </edge>
    <edge id=":636821092_0" function="internal" bidi=":636821092_1">
        <lane id=":636821092_0_0" index="0" allow="rail" speed="3.91" length="4.76" shape="1642.01,2544.92 1642.05,2543.72 1642.91,2542.91 1644.08,2542.73 1645.05,2543.43"/>
    </edge>
    <edge id=":636821092_1" function="internal" bidi=":636821092_0">
        <lane id=":636821092_1_0" index="0" allow="rail" speed="8.02" length="26.15" shape="1645.05,2543.43 1640.04,2535.09 1637.86,2532.56 1638.52,2535.83 1642.01,2544.92"/>
    </edge>
    <edge id=":636821092_2" function="internal">
        <lane id=":636821092_2_0" index="0" allow="rail" speed="44.44" length="27.51" shape="1631.39,2519.55 1645.05,2543.43"/>
    </edge>
    <edge id=":636821092_3" function="internal">
        <lane id=":636821092_3_0" index="0" allow="rail" speed="44.44" length="27.51" shape="1631.39,2519.55 1633.83,2524.69 1636.92,2532.12 1639.90,2539.61 1642.01,2544.92"/>
    </edge>
    <edge id=":636825737_0" function="internal">
        <lane id=":636825737_0_0" index="0" allow="rail rail_electric rail_fast" speed="44.44" length="34.28" shape="1540.34,2416.19 1538.16,2409.80 1534.40,2400.13 1530.52,2390.50 1527.96,2384.23"/>
    </edge>
    <edge id=":636825737_1" function="internal">
        <lane id=":636825737_1_0" index="0" allow="rail rail_electric rail_fast" speed="44.44" length="34.25" shape="1531.16,2383.18 1532.94,2389.70 1535.67,2399.71 1538.48,2409.69 1540.50,2416.13"/>
    </edge>
    <edge id=":636825737_2" function="internal">
        <lane id=":636825737_2_0" index="0" allow="rail rail_electric rail_fast" speed="44.44" length="34.27" shape="1527.96,2384.23 1540.50,2416.13"/>
    </edge>
    <edge id=":636827957_0" function="internal">
        <lane id=":636827957_0_0" index="0" allow="rail" speed="44.44" length="24.01" shape="1563.12,2407.29 1560.80,2402.68 1557.71,2396.56 1554.51,2390.51 1551.83,2386.12"/>
    </edge>
    <edge id=":636827957_1" function="internal">
        <lane id=":636827957_1_0" index="0" allow="rail" speed="44.44" length="24.03" shape="1563.12,2407.29 1552.01,2385.99"/>
    </edge>
    <edge id=":636827957_2" function="internal">
        <lane id=":636827957_2_0" index="0" allow="rail rail_electric rail_fast" speed="44.44" length="24.00" shape="1566.00,2405.49 1551.83,2386.12"/>
    </edge>
    <edge id=":636827957_3" function="internal">
        <lane id=":636827957_3_0" index="0" allow="rail" speed="44.44" length="24.01" shape="1566.00,2405.49 1562.93,2401.34 1558.81,2395.86 1554.79,2390.32 1552.01,2385.99"/>
    </edge>
    <edge id=":636828345_0" function="internal">
        <lane id=":636828345_0_0" index="0" allow="rail" speed="44.44" length="2.86" shape="1577.97,2422.65 1579.40,2425.13"/>
    </edge>
    <edge id=":636828348_0" function="internal">
        <lane id=":636828348_0_0" index="0" allow="rail rail_electric rail_fast" speed="2.77" length="1.45" shape="1528.58,2351.43 1528.29,2350.98 1528.17,2350.84 1528.24,2351.01 1528.49,2351.49"/>
    </edge>
    <edge id=":636828348_1" function="internal">
        <lane id=":636828348_1_0" index="0" allow="rail rail_electric rail_fast" speed="44.44" length="2.89" shape="1527.13,2348.94 1528.49,2351.49"/>
    </edge>
    <edge id=":7012717215_0" function="internal">
        <lane id=":7012717215_0_0" index="0" allow="rail rail_electric rail_fast" speed="44.44" length="3.00" shape="1563.63,2482.84 1562.99,2479.91"/>
    </edge>
    <edge id=":7012717215_1" function="internal">
        <lane id=":7012717215_1_0" index="0" allow="rail rail_electric rail_fast" speed="44.44" length="3.00" shape="1563.75,2482.81 1562.99,2479.91"/>
    </edge>
    <edge id=":7012717216_0" function="internal">
        <lane id=":7012717216_0_0" index="0" allow="rail rail_electric rail_fast" speed="44.44" length="27.78" shape="1559.79,2419.22 1557.44,2413.98 1553.76,2406.72 1549.86,2399.56 1546.88,2394.65"/>
    </edge>
    <edge id=":7012717216_1" function="internal">
        <lane id=":7012717216_1_0" index="0" allow="rail rail_electric rail_fast" speed="44.44" length="27.98" shape="1559.79,2419.22 1550.03,2393.00"/>
    </edge>
    <edge id=":7012717216_2" function="internal">
        <lane id=":7012717216_2_0" index="0" allow="rail rail_electric rail_fast" speed="44.44" length="27.98" shape="1562.93,2417.57 1546.88,2394.65"/>
    </edge>
    <edge id=":7012717216_3" function="internal">
        <lane id=":7012717216_3_0" index="0" allow="rail rail_electric rail_fast" speed="44.44" length="27.78" shape="1562.93,2417.57 1559.96,2412.66 1556.06,2405.50 1552.38,2398.24 1550.03,2393.00"/>
    </edge>
    <edge id=":989097005_0" function="internal">
        <lane id=":989097005_0_0" index="0" allow="rail" speed="44.44" length="2.98" shape="1505.09,2298.82 1503.70,2296.19"/>
    </edge>
    <edge id=":989097005_1" function="internal">
        <lane id=":989097005_1_0" index="0" allow="rail" speed="44.44" length="3.00" shape="1503.91,2296.08 1504.95,2298.90"/>
    </edge>
    <edge id=":989097026_0" function="internal" bidi=":989097026_3">
        <lane id=":989097026_0_0" index="0" allow="rail rail_electric rail_fast" speed="44.44" length="41.48" shape="1516.51,2358.15 1512.35,2351.46 1505.23,2340.75 1498.03,2330.10 1493.60,2323.57"/>
    </edge>
    <edge id=":989097026_1" function="internal" bidi=":989097026_2">
        <lane id=":989097026_1_0" index="0" allow="rail rail_electric rail_fast" speed="44.44" length="41.49" shape="1516.51,2358.15 1496.44,2321.84"/>
    </edge>
    <edge id=":989097026_2" function="internal" bidi=":989097026_1">
        <lane id=":989097026_2_0" index="0" allow="rail rail_electric rail_fast" speed="44.44" length="41.49" shape="1496.44,2321.84 1516.51,2358.15"/>
    </edge>
    <edge id=":989097026_3" function="internal" bidi=":989097026_0">
        <lane id=":989097026_3_0" index="0" allow="rail rail_electric rail_fast" speed="44.44" length="41.48" shape="1493.60,2323.57 1498.03,2330.10 1505.23,2340.75 1512.35,2351.46 1516.51,2358.15"/>
    </edge>
    <edge id=":989097064_0" function="internal">
        <lane id=":989097064_0_0" index="0" allow="rail rail_electric rail_fast" speed="44.44" length="35.27" shape="1476.05,2285.63 1471.00,2280.94 1462.82,2274.02 1454.54,2267.20 1449.19,2262.80"/>
    </edge>
    <edge id=":989097064_1" function="internal">
        <lane id=":989097064_1_0" index="0" allow="rail rail_electric rail_fast" speed="44.44" length="35.27" shape="1476.05,2285.63 1451.46,2260.35"/>
    </edge>
    <edge id=":989097162_0" function="internal">
        <lane id=":989097162_0_0" index="0" allow="rail rail_electric rail_fast" speed="4.47" length="31.23" shape="1457.94,2252.88 1479.50,2275.48"/>
    </edge>
    <edge id=":989097162_1" function="internal">
        <lane id=":989097162_1_0" index="0" allow="rail rail_electric rail_fast" speed="24.45" length="31.22" shape="1455.65,2255.34 1460.52,2259.32 1467.76,2265.22 1474.90,2271.22 1479.50,2275.48"/>
    </edge>
    <edge id=":989097226_0" function="internal">
        <lane id=":989097226_0_0" index="0" allow="rail rail_electric rail_fast" speed="24.45" length="31.12" shape="1494.76,2287.58 1509.13,2315.18"/>
    </edge>
    <edge id=":989097226_1" function="internal">
        <lane id=":989097226_1_0" index="0" allow="rail rail_electric rail_fast" speed="4.47" length="31.20" shape="1491.77,2289.27 1495.41,2294.40 1500.69,2302.08 1505.85,2309.83 1509.13,2315.18"/>
    </edge>
    <edge id=":989097283_0" function="internal">
        <lane id=":989097283_0_0" index="0" allow="rail" speed="44.44" length="0.30" shape="1457.54,2187.27 1457.40,2187.01"/>
    </edge>
    <edge id=":989097292_0" function="internal">
        <lane id=":989097292_0_0" index="0" allow="rail rail_electric rail_fast" speed="44.44" length="3.01" shape="1549.36,2391.18 1548.27,2388.38"/>
    </edge>
    <edge id=":989097292_1" function="internal">
        <lane id=":989097292_1_0" index="0" allow="rail rail_electric rail_fast" speed="44.44" length="2.99" shape="1548.14,2388.44 1549.55,2391.08"/>
    </edge>
    <edge id=":989097396_0" function="internal" bidi=":989097396_3">
        <lane id=":989097396_0_0" index="0" allow="rail rail_electric rail_fast" speed="44.44" length="5.47" shape="1490.46,2311.06 1489.65,2309.67 1489.02,2308.75 1488.33,2307.88 1487.33,2306.59"/>
    </edge>
    <edge id=":989097396_1" function="internal">
        <lane id=":989097396_1_0" index="0" allow="rail" speed="29.16" length="0.10" shape="1490.51,2311.04 1490.46,2311.06"/>
    </edge>
    <edge id=":989097396_2" function="internal">
        <lane id=":989097396_2_0" index="0" allow="rail" speed="29.16" length="5.47" shape="1490.51,2311.04 1489.65,2309.67 1489.00,2308.76 1488.32,2307.88 1487.33,2306.59"/>
    </edge>
    <edge id=":989097396_3" function="internal" bidi=":989097396_0">
        <lane id=":989097396_3_0" index="0" allow="rail rail_electric rail_fast" speed="44.44" length="5.47" shape="1487.33,2306.59 1488.33,2307.88 1489.02,2308.75 1489.65,2309.67 1490.46,2311.06"/>
    </edge>
    <edge id=":989097404_0" function="internal">
        <lane id=":989097404_0_0" index="0" allow="rail" speed="44.44" length="25.45" shape="1535.30,2355.39 1533.01,2350.53 1529.53,2344.06 1525.95,2337.65 1523.32,2332.95"/>
    </edge>
    <edge id=":989097404_1" function="internal">
        <lane id=":989097404_1_0" index="0" allow="rail rail_electric rail_fast" speed="44.44" length="25.46" shape="1535.30,2355.39 1526.42,2331.53"/>
    </edge>
    <edge id=":989097404_2" function="internal">
        <lane id=":989097404_2_0" index="0" allow="rail" speed="44.44" length="25.44" shape="1535.48,2355.29 1523.32,2332.95"/>
    </edge>
    <edge id=":989097404_3" function="internal">
        <lane id=":989097404_3_0" index="0" allow="rail" speed="44.44" length="25.44" shape="1535.48,2355.29 1533.31,2350.38 1530.71,2343.52 1528.23,2336.60 1526.42,2331.53"/>
    </edge>
    <edge id=":989097412_0" function="internal">
        <lane id=":989097412_0_0" index="0" allow="rail" speed="44.44" length="3.01" shape="1475.43,2221.76 1474.04,2219.09"/>
    </edge>
    <edge id=":989097454_0" function="internal">
        <lane id=":989097454_0_0" index="0" allow="rail rail_electric rail_fast" speed="44.44" length="3.00" shape="1517.34,2330.36 1517.67,2331.18 1517.92,2331.74 1518.19,2332.29 1518.61,2333.07"/>
    </edge>
    <edge id=":989097454_1" function="internal">
        <lane id=":989097454_1_0" index="0" allow="rail rail_electric rail_fast" speed="44.44" length="3.01" shape="1517.34,2330.36 1518.43,2333.17"/>
    </edge>
    <edge id=":989097454_2" function="internal">
        <lane id=":989097454_2_0" index="0" allow="rail rail_electric rail_fast" speed="24.45" length="2.99" shape="1517.20,2330.43 1518.61,2333.07"/>
    </edge>
    <edge id=":989097454_3" function="internal">
        <lane id=":989097454_3_0" index="0" allow="rail rail_electric rail_fast" speed="24.45" length="3.00" shape="1517.20,2330.43 1517.61,2331.22 1517.88,2331.77 1518.11,2332.34 1518.43,2333.17"/>
    </edge>
    <edge id=":989097455_0" function="internal">
        <lane id=":989097455_0_0" index="0" allow="rail rail_electric rail_fast" speed="44.44" length="31.16" shape="1451.17,2266.68 1455.60,2271.12 1462.02,2277.86 1468.38,2284.66 1472.63,2289.28"/>
    </edge>
    <edge id=":989097455_1" function="internal">
        <lane id=":989097455_1_0" index="0" allow="rail rail_electric rail_fast" speed="44.44" length="21.69" shape="1456.18,2275.15 1459.90,2278.19 1464.58,2282.03 1469.18,2285.96 1472.63,2289.28"/>
    </edge>
    <edge id=":989097498_0" function="internal">
        <lane id=":989097498_0_0" index="0" allow="rail" speed="44.44" length="0.29" shape="1445.08,2184.42 1444.94,2184.16"/>
    </edge>
    <edge id=":989097630_0" function="internal">
        <lane id=":989097630_0_0" index="0" allow="rail rail_electric rail_fast" speed="5.59" length="0.10" shape="1448.04,2243.09 1448.04,2243.09"/>
    </edge>
    <edge id=":989097640_0" function="internal">
        <lane id=":989097640_0_0" index="0" allow="rail rail_electric rail_fast" speed="5.59" length="2.61" shape="1438.45,2241.19 1437.89,2240.65 1437.50,2240.29 1437.09,2239.96 1436.46,2239.50"/>
    </edge>
    <edge id=":989097684_0" function="internal">
        <lane id=":989097684_0_0" index="0" allow="rail rail_electric rail_fast" speed="44.44" length="0.24" shape="1492.81,2306.32 1492.67,2306.12"/>
    </edge>
    <edge id=":989097687_0" function="internal">
        <lane id=":989097687_0_0" index="0" allow="rail" speed="44.44" length="3.01" shape="1522.38,2320.68 1521.32,2317.86"/>
    </edge>
    <edge id=":989097687_1" function="internal">
        <lane id=":989097687_1_0" index="0" allow="rail" speed="44.44" length="2.99" shape="1521.16,2317.94 1522.55,2320.59"/>
    </edge>
    <edge id=":989097698_0" function="internal">
        <lane id=":989097698_0_0" index="0" allow="rail rail_electric rail_fast" speed="2.83" length="1.60" shape="1438.53,2253.87 1438.07,2253.50 1437.90,2253.39 1438.02,2253.55 1438.44,2253.98"/>
    </edge>
    <edge id=":989097698_1" function="internal">
        <lane id=":989097698_1_0" index="0" allow="rail rail_electric rail_fast" speed="44.44" length="3.00" shape="1436.23,2251.94 1438.44,2253.98"/>
    </edge>
    <edge id=":989097723_0" function="internal">
        <lane id=":989097723_0_0" index="0" allow="rail" speed="44.44" length="57.75" shape="1479.36,2231.86 1483.58,2241.39 1491.22,2258.18 1498.94,2274.93 1503.43,2284.35"/>
    </edge>
    <edge id=":989097723_1" function="internal">
        <lane id=":989097723_1_0" index="0" allow="rail" speed="44.44" length="57.82" shape="1479.36,2231.86 1500.31,2285.75"/>
    </edge>
    <edge id=":989097723_2" function="internal">
        <lane id=":989097723_2_0" index="0" allow="rail" speed="44.44" length="57.82" shape="1476.32,2233.28 1503.43,2284.35"/>
    </edge>
    <edge id=":989097723_3" function="internal">
        <lane id=":989097723_3_0" index="0" allow="rail" speed="44.44" length="57.70" shape="1476.32,2233.28 1480.83,2242.67 1488.58,2259.40 1496.19,2276.18 1500.31,2285.75"/>
    </edge>
    <edge id=":989097726_0" function="internal" bidi=":989097726_2">
        <lane id=":989097726_0_0" index="0" allow="rail rail_electric rail_fast" speed="44.44" length="45.53" shape="1461.09,2283.68 1455.09,2277.63 1444.95,2267.61 1434.74,2257.68 1428.49,2251.89"/>
    </edge>
    <edge id=":989097726_1" function="internal">
        <lane id=":989097726_1_0" index="0" allow="rail rail_electric rail_fast" speed="44.44" length="35.96" shape="1428.49,2251.89 1456.03,2275.02"/>
    </edge>
    <edge id=":989097726_2" function="internal" bidi=":989097726_0">
        <lane id=":989097726_2_0" index="0" allow="rail rail_electric rail_fast" speed="44.44" length="45.53" shape="1428.49,2251.89 1434.74,2257.68 1444.95,2267.61 1455.09,2277.63 1461.09,2283.68"/>
    </edge>
    <edge id=":989097751_0" function="internal">
        <lane id=":989097751_0_0" index="0" allow="rail" speed="29.16" length="3.27" shape="1528.73,2373.90 1528.37,2373.00 1528.09,2372.40 1527.76,2371.82 1527.26,2370.99"/>
    </edge>
    <edge id=":End1_0" function="internal">
        <lane id=":End1_0_0" index="0" allow="rail" speed="0.10" length="0.10" shape="1670.70,2814.24 1670.70,2814.24"/>
    </edge>
    <edge id=":End10_0" function="internal">
        <lane id=":End10_0_0" index="0" allow="rail" speed="0.10" length="0.10" shape="1743.32,2834.20 1743.32,2834.20"/>
    </edge>
    <edge id=":End11_0" function="internal">
        <lane id=":End11_0_0" index="0" allow="rail rail_electric rail_fast" speed="0.10" length="0.10" shape="1728.37,2773.71 1728.37,2773.71"/>
    </edge>
    <edge id=":End12_0" function="internal">
        <lane id=":End12_0_0" index="0" allow="rail" speed="0.10" length="0.10" shape="1736.71,2780.17 1736.71,2780.17"/>
    </edge>
    <edge id=":End13_0" function="internal">
        <lane id=":End13_0_0" index="0" allow="rail" speed="0.10" length="0.10" shape="1730.81,2742.73 1730.81,2742.73"/>
    </edge>
    <edge id=":End2_0" function="internal">
        <lane id=":End2_0_0" index="0" allow="rail" speed="0.10" length="0.10" shape="1675.52,2812.08 1675.52,2812.08"/>
    </edge>
    <edge id=":End3_0" function="internal">
        <lane id=":End3_0_0" index="0" allow="rail rail_electric rail_fast" speed="0.10" length="0.10" shape="1687.47,2818.69 1687.47,2818.69"/>
    </edge>
    <edge id=":End4_0" function="internal">
        <lane id=":End4_0_0" index="0" allow="rail rail_electric rail_fast" speed="0.10" length="0.10" shape="1692.16,2816.94 1692.16,2816.94"/>
    </edge>
    <edge id=":End5_0" function="internal">
        <lane id=":End5_0_0" index="0" allow="rail rail_electric rail_fast" speed="0.10" length="0.10" shape="1703.86,2822.55 1703.86,2822.55"/>
    </edge>
    <edge id=":End6_0" function="internal">
        <lane id=":End6_0_0" index="0" allow="rail rail_electric rail_fast" speed="0.10" length="0.10" shape="1708.59,2820.71 1708.59,2820.71"/>
    </edge>
    <edge id=":End7_0" function="internal">
        <lane id=":End7_0_0" index="0" allow="rail rail_electric rail_fast" speed="0.10" length="0.10" shape="1720.83,2828.35 1720.83,2828.35"/>
    </edge>
    <edge id=":End8_0" function="internal">
        <lane id=":End8_0_0" index="0" allow="rail" speed="0.10" length="0.10" shape="1725.48,2826.52 1725.48,2826.52"/>
    </edge>
    <edge id=":End9_0" function="internal">
        <lane id=":End9_0_0" index="0" allow="rail rail_electric rail_fast" speed="0.10" length="0.10" shape="1738.67,2835.77 1738.67,2835.77"/>
    </edge>
    <edge id=":PS1_0" function="internal">
        <lane id=":PS1_0_0" index="0" allow="rail" speed="44.44" length="50.96" shape="1577.20,2570.94 1566.53,2521.11"/>
    </edge>
    <edge id=":PS1_1" function="internal">
        <lane id=":PS1_1_0" index="0" allow="rail" speed="44.44" length="50.99" shape="1577.20,2570.94 1569.82,2520.49"/>
    </edge>
    <edge id=":PS1_2" function="internal">
        <lane id=":PS1_2_0" index="0" allow="rail" speed="44.44" length="50.96" shape="1580.52,2570.11 1566.53,2521.11"/>
    </edge>
    <edge id=":PS1_3" function="internal">
        <lane id=":PS1_3_0" index="0" allow="rail" speed="44.44" length="50.77" shape="1580.52,2570.11 1578.27,2561.06 1574.83,2545.38 1571.56,2529.67 1569.82,2520.49"/>
    </edge>
    <edge id=":PS2_0" function="internal">
        <lane id=":PS2_0_0" index="0" allow="rail rail_electric rail_fast" speed="44.44" length="30.78" shape="1578.12,2540.37 1570.94,2510.44"/>
    </edge>
    <edge id=":PS2_1" function="internal">
        <lane id=":PS2_1_0" index="0" allow="rail rail_electric rail_fast" speed="44.44" length="30.83" shape="1581.39,2539.44 1579.17,2533.62 1575.96,2525.01 1572.85,2516.36 1570.94,2510.44"/>
    </edge>
    <edge id=":PS3_0" function="internal">
        <lane id=":PS3_0_0" index="0" allow="rail rail_electric rail_fast" speed="44.44" length="33.95" shape="1576.63,2500.34 1574.85,2493.86 1572.10,2483.97 1569.25,2474.11 1567.13,2467.75"/>
    </edge>
    <edge id=":PS3_1" function="internal">
        <lane id=":PS3_1_0" index="0" allow="rail rail_electric rail_fast" speed="44.44" length="33.96" shape="1579.80,2499.25 1567.13,2467.75"/>
    </edge>
    <edge id=":PS4_0" function="internal">
        <lane id=":PS4_0_0" index="0" allow="rail rail_electric rail_fast" speed="44.44" length="41.83" shape="1575.67,2461.83 1572.98,2454.36 1568.52,2442.17 1563.94,2430.03 1560.87,2422.72"/>
    </edge>
    <edge id=":PS4_1" function="internal">
        <lane id=":PS4_1_0" index="0" allow="rail rail_electric rail_fast" speed="44.44" length="41.85" shape="1575.67,2461.83 1561.06,2422.62"/>
    </edge>
    <edge id=":PS4_2" function="internal">