<?xml version="1.0" encoding="UTF-8"?>

<!-- generated on 2021-12-22 10:16:36 by Eclipse SUMO netedit Version 1.10.0
<configuration xmlns:xsi="http://www.w3.org/2001/XMLSchema-instance" xsi:noNamespaceSchemaLocation="http://sumo.dlr.de/xsd/netconvertConfiguration.xsd">

    <input>
        <sumo-net-file value="/Users/work/Documents/1200/Final/SUMO/SouthStationOSM/SouthStationOSM.net.xml"/>
    </input>

    <output>
        <output-file value="/Users/work/Documents/1200/Final/SUMO/SouthStationOSM/SouthStationEdit.net.xml"/>
        <output.street-names value="true"/>
    </output>

    <processing>
        <geometry.min-radius.fix.railways value="false"/>
        <geometry.max-grade.fix value="false"/>
        <offset.disable-normalization value="true"/>
        <lefthand value="false"/>
    </processing>

    <junctions>
        <no-turnarounds value="true"/>
        <junctions.corner-detail value="5"/>
        <junctions.limit-turn-speed value="5.5"/>
        <rectangular-lane-cut value="false"/>
    </junctions>

    <pedestrian>
        <walkingareas value="false"/>
    </pedestrian>

    <netedit>
        <route-files value="/Users/work/Documents/1200/Final/SUMO/SouthStationOSM/test1.rou.xml"/>
    </netedit>

    <report>
        <aggregate-warnings value="5"/>
    </report>

</configuration>
-->

<routes xmlns:xsi="http://www.w3.org/2001/XMLSchema-instance" xsi:noNamespaceSchemaLocation="http://sumo.dlr.de/xsd/routes_file.xsd">
    <route edges="A5 749953341#2 -749953341#1 85317973 321756744 -93191162 L1_in" color="yellow" id="A5toP1"/>
</routes>
